LTspice 24.0.12 for Windows
Circuit: * C:\Users\villalba\Downloads\ECE 322\Lab6\PreLab6.asc
Start Time: Thu Oct 17 13:31:28 2024
solver = Normal
Maximum thread count: 24
tnom = 27
temp = 27
method = modified trap
Total elapsed time: 0.121 seconds.

